  47
 
Mo    0.0000000    0.0000000    0.0000000
Dy    0.0000000    0.0000000   -3.3814961
Dy    0.0000000    0.0000000    3.3814961
S     1.2724516    1.2724516   -1.2986604
S    -1.2724516   -1.2724516   -1.2986604
S     1.2724516   -1.2724516    1.2986604
S    -1.2724516    1.2724516    1.2986604
C     2.4431229   -0.8251947   -4.0223098
C     1.8804599   -1.8804599   -3.2671527
C     0.8251947   -2.4431229   -4.0223098
C     0.7377038   -1.7398268   -5.2470536
C     1.7398268   -0.7377038   -5.2470536
C    -0.8251947    2.4431229   -4.0223098
C    -1.8804599    1.8804599   -3.2671527
C    -2.4431229    0.8251947   -4.0223098
C    -1.7398268    0.7377038   -5.2470536
C    -0.7377038    1.7398268   -5.2470536
C     0.8251947    2.4431229    4.0223098
C     0.7377038    1.7398268    5.2470536
C     1.7398268    0.7377038    5.2470536
C     2.4431229    0.8251947    4.0223098
C     1.8804599    1.8804599    3.2671527
C    -2.4431229   -0.8251947    4.0223098
C    -1.7398268   -0.7377038    5.2470536
C    -0.7377038   -1.7398268    5.2470536
C    -0.8251947   -2.4431229    4.0223098
C    -1.8804599   -1.8804599    3.2671527
H     0.1882575   -3.2586558   -3.7096142
H     0.0314230   -1.9309634   -6.0428733
H     2.1744326   -2.1744326   -2.2696644
H     1.9309634   -0.0314230   -6.0428733
H     3.2586558   -0.1882575   -3.7096142
H    -0.0314230    1.9309634   -6.0428733
H    -0.1882575    3.2586558   -3.7096142
H    -2.1744326    2.1744326   -2.2696644
H    -3.2586558    0.1882575   -3.7096142
H    -1.9309634    0.0314230   -6.0428733
H    -0.1882575   -3.2586558    3.7096142
H    -2.1744326   -2.1744326    2.2696644
H    -3.2586558   -0.1882575    3.7096142
H    -1.9309634   -0.0314230    6.0428733
H    -0.0314230   -1.9309634    6.0428733
H     0.0314230    1.9309634    6.0428733
H     0.1882575    3.2586558    3.7096142
H     2.1744326    2.1744326    2.2696644
H     1.9309634    0.0314230    6.0428733
H     3.2586558    0.1882575    3.7096142
