  47
 
Mo    0.0000000    0.0000000    0.0000000
Tb    0.0000000    0.0000000   -3.3740227
Tb    0.0000000    0.0000000    3.3740227
S     1.2834089    1.2834089   -1.2861314
S    -1.2834089   -1.2834089   -1.2861314
S     1.2834089   -1.2834089    1.2861314
S    -1.2834089    1.2834089    1.2861314
C     2.4476978   -0.8301138   -4.0200665
C     1.8877219   -1.8877219   -3.2668369
C     0.8301138   -2.4476978   -4.0200665
C     0.7396631   -1.7414032   -5.2432447
C     1.7414032   -0.7396631   -5.2432447
C    -0.8301138    2.4476978   -4.0200665
C    -1.8877219    1.8877219   -3.2668369
C    -2.4476978    0.8301138   -4.0200665
C    -1.7414032    0.7396631   -5.2432447
C    -0.7396631    1.7414032   -5.2432447
C     0.8301138    2.4476978    4.0200665
C     0.7396631    1.7414032    5.2432447
C     1.7414032    0.7396631    5.2432447
C     2.4476978    0.8301138    4.0200665
C     1.8877219    1.8877219    3.2668369
C    -2.4476978   -0.8301138    4.0200665
C    -1.7414032   -0.7396631    5.2432447
C    -0.7396631   -1.7414032    5.2432447
C    -0.8301138   -2.4476978    4.0200665
C    -1.8877219   -1.8877219    3.2668369
H     0.1926480   -3.2626804   -3.7072353
H     0.0304583   -1.9309790   -6.0367493
H     2.1823124   -2.1823124   -2.2696587
H     1.9309790   -0.0304583   -6.0367493
H     3.2626804   -0.1926480   -3.7072353
H    -0.0304583    1.9309790   -6.0367493
H    -0.1926480    3.2626804   -3.7072353
H    -2.1823124    2.1823124   -2.2696587
H    -3.2626804    0.1926480   -3.7072353
H    -1.9309790    0.0304583   -6.0367493
H    -0.1926480   -3.2626804    3.7072353
H    -2.1823124   -2.1823124    2.2696587
H    -3.2626804   -0.1926480    3.7072353
H    -1.9309790   -0.0304583    6.0367493
H    -0.0304583   -1.9309790    6.0367493
H     0.0304583    1.9309790    6.0367493
H     0.1926480    3.2626804    3.7072353
H     2.1823124    2.1823124    2.2696587
H     1.9309790    0.0304583    6.0367493
H     3.2626804    0.1926480    3.7072353
