 107
 
Mo    0.0000000    0.0000000    0.3190665
Y    -0.2410889    3.3724087    0.0809979
S     1.0760182    1.4990487    1.5856086
S    -1.4436639    1.1480332   -0.9547496
S     1.4436639   -1.1480332   -0.9547496
S    -1.0760182   -1.4990487    1.5856086
C     2.1060528    3.2857143   -1.2174157
C     1.1132858    3.1198454   -2.2234506
C     0.3641963    4.3346013   -2.3109479
C     0.9183012    5.2661779   -1.3791505
C     1.9738561    4.6034810   -0.6784211
C    -1.1445303    4.0584300    2.4903570
C    -2.1473544    3.2100987    1.9346671
C    -2.7356494    3.8940760    0.8298450
C    -2.1121026    5.1738693    0.7131753
C    -1.1235879    5.2753006    1.7424094
C    -0.7308513    4.5989326   -3.3084827
C     0.6392763    6.7414668   -1.3426055
C     0.9782670    1.9443330   -3.1481939
C     2.8917112    5.2160778    0.3442717
C     3.2033396    2.3133185   -0.8919833
C    -0.3548855    6.5028224    2.1472089
C    -2.5582287    1.8689083    2.4672840
C    -3.9024493    3.4188511    0.0096312
C    -2.6032208    6.2749071   -0.1857748
H     1.6005697    2.0918752   -4.0511383
H    -0.0622543    1.8030605   -3.4748180
H    -1.7055694    1.3337430    2.9102872
H    -3.3363080    1.9724027    3.2461598
H     1.2937178    1.0071099   -2.6677642
H    -2.9577109    1.2239022    1.6713556
H     3.5238772    2.3988632    0.1566191
H     4.0857866    2.5002636   -1.5328321
H     2.8854426    1.2722928   -1.0475866
H    -3.8463513    3.7799403   -1.0297588
H    -4.8593248    3.7819261    0.4303290
H    -3.9423922    2.3206907   -0.0281777
C    -0.3478048    3.7898375    3.7360652
H    -0.8624983    4.1903934    4.6300438
H     0.6475303    4.2599272    3.6946770
H    -0.1929743    2.7117969    3.8868482
H    -0.3247932    4.7712213   -4.3225239
H    -1.3204902    5.4884106   -3.0394576
H     2.4562167    6.1232794    0.7893557
H    -1.9513160    7.1579023   -0.1409325
H    -0.7460200    6.9134121    3.0963039
H     1.3625576    7.2828501   -1.9810455
H    -1.4259495    3.7463997   -3.3815303
Y     0.2410889   -3.3724087    0.0809979
C     1.1445303   -4.0584300    2.4903570
C    -0.3641963   -4.3346013   -2.3109479
C     2.7356494   -3.8940760    0.8298450
C    -2.1060528   -3.2857143   -1.2174157
C     2.1473544   -3.2100987    1.9346671
C    -1.1132858   -3.1198454   -2.2234506
C     2.1121026   -5.1738693    0.7131753
C    -1.9738561   -4.6034810   -0.6784211
C     1.1235879   -5.2753006    1.7424094
C    -0.9183012   -5.2661779   -1.3791505
C     3.9024493   -3.4188511    0.0096312
C    -3.2033396   -2.3133185   -0.8919833
C     0.3478048   -3.7898375    3.7360652
C     0.7308513   -4.5989326   -3.3084827
C     2.6032208   -6.2749071   -0.1857748
C    -2.8917112   -5.2160778    0.3442717
C     0.3548855   -6.5028224    2.1472089
C    -0.6392763   -6.7414668   -1.3426055
C     2.5582287   -1.8689083    2.4672840
C    -0.9782670   -1.9443330   -3.1481939
H     3.3363080   -1.9724027    3.2461598
H    -1.6005697   -2.0918752   -4.0511383
H     2.9577109   -1.2239022    1.6713556
H    -1.2937178   -1.0071099   -2.6677642
H     1.7055694   -1.3337430    2.9102872
H     0.0622543   -1.8030605   -3.4748180
H    -0.6475303   -4.2599272    3.6946770
H     1.3204902   -5.4884106   -3.0394576
H     3.8463513   -3.7799403   -1.0297588
H    -3.5238772   -2.3988632    0.1566191
H     0.8624983   -4.1903934    4.6300438
H     0.3247932   -4.7712213   -4.3225239
H     4.8593248   -3.7819261    0.4303290
H    -4.0857866   -2.5002636   -1.5328321
H     0.1929743   -2.7117969    3.8868482
H     1.4259495   -3.7463997   -3.3815303
H     3.9423922   -2.3206907   -0.0281777
H    -2.8854426   -1.2722928   -1.0475866
H     2.6699496   -5.9645562   -1.2414861
H    -0.3643330    6.9796054   -1.7204766
H     0.7162400    6.2991158    2.3084560
H     0.4316998   -7.2992946    1.3937936
H    -0.7264864   -7.1625232   -0.3310140
H     1.9513160   -7.1579023   -0.1409325
H     0.7264864    7.1625232   -0.3310140
H    -2.4562167   -6.1232794    0.7893557
H    -0.4316998    7.2992946    1.3937936
H    -3.1127269   -4.5132120    1.1642021
H     0.3643330   -6.9796054   -1.7204766
H    -2.6699496    5.9645562   -1.2414861
H    -0.7162400   -6.2991158    2.3084560
H     3.1127269    4.5132120    1.1642021
H    -3.8616070   -5.5052492   -0.1018771
H     3.6167220   -6.5990312    0.1141090
H    -1.3625576   -7.2828501   -1.9810455
H    -3.6167220    6.5990312    0.1141090
H     0.7460200   -6.9134121    3.0963039
H     3.8616070    5.5052492   -0.1018771
