  47
 
Mo    0.0000000    0.0000000    0.0000000
Dy    0.0000000    0.0000000   -3.5118715
Dy    0.0000000    0.0000000    3.5118715
S     1.2182730    1.2182730   -1.3763721
S    -1.2182730   -1.2182730   -1.3763721
S     1.2182730   -1.2182730    1.3763721
S    -1.2182730    1.2182730    1.3763721
C     2.4661729   -0.8501921   -4.1472235
C     1.8977717   -1.8977717   -3.3881961
C     0.8501921   -2.4661729   -4.1472235
C     0.7722748   -1.7732586   -5.3783179
C     1.7732586   -0.7722748   -5.3783179
C    -0.8501921    2.4661729   -4.1472235
C    -1.8977717    1.8977717   -3.3881961
C    -2.4661729    0.8501921   -4.1472235
C    -1.7732586    0.7722748   -5.3783179
C    -0.7722748    1.7732586   -5.3783179
C     0.8501921    2.4661729    4.1472235
C     0.7722748    1.7732586    5.3783179
C     1.7732586    0.7722748    5.3783179
C     2.4661729    0.8501921    4.1472235
C     1.8977717    1.8977717    3.3881961
C    -2.4661729   -0.8501921    4.1472235
C    -1.7732586   -0.7722748    5.3783179
C    -0.7722748   -1.7732586    5.3783179
C    -0.8501921   -2.4661729    4.1472235
C    -1.8977717   -1.8977717    3.3881961
H     0.2092060   -3.2764463   -3.8295311
H     0.0749636   -1.9747341   -6.1796101
H     2.1809173   -2.1809173   -2.3848946
H     1.9747341   -0.0749636   -6.1796101
H     3.2764463   -0.2092060   -3.8295311
H    -0.0749636    1.9747341   -6.1796101
H    -0.2092060    3.2764463   -3.8295311
H    -2.1809173    2.1809173   -2.3848946
H    -3.2764463    0.2092060   -3.8295311
H    -1.9747341    0.0749636   -6.1796101
H    -0.2092060   -3.2764463    3.8295311
H    -2.1809173   -2.1809173    2.3848946
H    -3.2764463   -0.2092060    3.8295311
H    -1.9747341   -0.0749636    6.1796101
H    -0.0749636   -1.9747341    6.1796101
H     0.0749636    1.9747341    6.1796101
H     0.2092060    3.2764463    3.8295311
H     2.1809173    2.1809173    2.3848946
H     1.9747341    0.0749636    6.1796101
H     3.2764463    0.2092060    3.8295311
