  47
 
Mo    0.0000000    0.0000000    0.0000000
Dy    0.0000000    0.0000000   -3.3873331
Dy    0.0000000    0.0000000    3.3873331
S     1.2748903    1.2748903   -1.3376065
S    -1.2748903   -1.2748903   -1.3376065
S     1.2748903   -1.2748903    1.3376065
S    -1.2748903    1.2748903    1.3376065
C     2.4520058   -0.8291099   -4.0377202
C     1.8874829   -1.8874829   -3.2799245
C     0.8291099   -2.4520058   -4.0377202
C     0.7323630   -1.7383694   -5.2621451
C     1.7383694   -0.7323630   -5.2621451
C    -0.8291099    2.4520058   -4.0377202
C    -1.8874829    1.8874829   -3.2799245
C    -2.4520058    0.8291099   -4.0377202
C    -1.7383694    0.7323630   -5.2621451
C    -0.7323630    1.7383694   -5.2621451
C     0.8291099    2.4520058    4.0377202
C     0.7323630    1.7383694    5.2621451
C     1.7383694    0.7323630    5.2621451
C     2.4520058    0.8291099    4.0377202
C     1.8874829    1.8874829    3.2799245
C    -2.4520058   -0.8291099    4.0377202
C    -1.7383694   -0.7323630    5.2621451
C    -0.7323630   -1.7383694    5.2621451
C    -0.8291099   -2.4520058    4.0377202
C    -1.8874829   -1.8874829    3.2799245
H     0.1878003   -3.2758405   -3.7188221
H     0.0218890   -1.9350908   -6.0677157
H     2.1852397   -2.1852397   -2.2733292
H     1.9350908   -0.0218890   -6.0677157
H     3.2758405   -0.1878003   -3.7188221
H    -0.0218890    1.9350908   -6.0677157
H    -0.1878003    3.2758405   -3.7188221
H    -2.1852397    2.1852397   -2.2733292
H    -3.2758405    0.1878003   -3.7188221
H    -1.9350908    0.0218890   -6.0677157
H    -0.1878003   -3.2758405    3.7188221
H    -2.1852397   -2.1852397    2.2733292
H    -3.2758405   -0.1878003    3.7188221
H    -1.9350908   -0.0218890    6.0677157
H    -0.0218890   -1.9350908    6.0677157
H     0.0218890    1.9350908    6.0677157
H     0.1878003    3.2758405    3.7188221
H     2.1852397    2.1852397    2.2733292
H     1.9350908    0.0218890    6.0677157
H     3.2758405    0.1878003    3.7188221
