  47
 
Mo    0.0000000    0.0000000    0.0000000
Dy    0.0000000    0.0000000   -3.3511350
Dy    0.0000000    0.0000000    3.3511350
S     1.2738810    1.2738810   -1.3141974
S    -1.2738810   -1.2738810   -1.3141974
S     1.2738810   -1.2738810    1.3141974
S    -1.2738810    1.2738810    1.3141974
C     2.4485982   -0.8323953   -3.9955963
C     1.8838324   -1.8838324   -3.2396929
C     0.8323953   -2.4485982   -3.9955963
C     0.7412385   -1.7430695   -5.2188614
C     1.7430695   -0.7412385   -5.2188614
C    -0.8323953    2.4485982   -3.9955963
C    -1.8838324    1.8838324   -3.2396929
C    -2.4485982    0.8323953   -3.9955963
C    -1.7430695    0.7412385   -5.2188614
C    -0.7412385    1.7430695   -5.2188614
C     0.8323953    2.4485982    3.9955963
C     0.7412385    1.7430695    5.2188614
C     1.7430695    0.7412385    5.2188614
C     2.4485982    0.8323953    3.9955963
C     1.8838324    1.8838324    3.2396929
C    -2.4485982   -0.8323953    3.9955963
C    -1.7430695   -0.7412385    5.2188614
C    -0.7412385   -1.7430695    5.2188614
C    -0.8323953   -2.4485982    3.9955963
C    -1.8838324   -1.8838324    3.2396929
H     0.1920216   -3.2579958   -3.6759011
H     0.0370583   -1.9369673   -6.0157290
H     2.1669808   -2.1669808   -2.2364711
H     1.9369673   -0.0370583   -6.0157290
H     3.2579958   -0.1920216   -3.6759011
H    -0.0370583    1.9369673   -6.0157290
H    -0.1920216    3.2579958   -3.6759011
H    -2.1669808    2.1669808   -2.2364711
H    -3.2579958    0.1920216   -3.6759011
H    -1.9369673    0.0370583   -6.0157290
H    -0.1920216   -3.2579958    3.6759011
H    -2.1669808   -2.1669808    2.2364711
H    -3.2579958   -0.1920216    3.6759011
H    -1.9369673   -0.0370583    6.0157290
H    -0.0370583   -1.9369673    6.0157290
H     0.0370583    1.9369673    6.0157290
H     0.1920216    3.2579958    3.6759011
H     2.1669808    2.1669808    2.2364711
H     1.9369673    0.0370583    6.0157290
H     3.2579958    0.1920216    3.6759011
