  47
 
Mo    0.0000000    0.0000000    0.0000000
Dy    0.0000000    0.0000000   -3.4989236
Dy    0.0000000    0.0000000    3.4989236
S     1.2335600    1.2335600   -1.3809759
S    -1.2335600   -1.2335600   -1.3809759
S     1.2335600   -1.2335600    1.3809759
S    -1.2335600    1.2335600    1.3809759
C     2.4551204   -0.8335068   -4.1489647
C     1.8912900   -1.8912900   -3.3902223
C     0.8335068   -2.4551204   -4.1489647
C     0.7469132   -1.7508118   -5.3809701
C     1.7508118   -0.7469132   -5.3809701
C    -0.8335068    2.4551204   -4.1489647
C    -1.8912900    1.8912900   -3.3902223
C    -2.4551204    0.8335068   -4.1489647
C    -1.7508118    0.7469132   -5.3809701
C    -0.7469132    1.7508118   -5.3809701
C     0.8335068    2.4551204    4.1489647
C     0.7469132    1.7508118    5.3809701
C     1.7508118    0.7469132    5.3809701
C     2.4551204    0.8335068    4.1489647
C     1.8912900    1.8912900    3.3902223
C    -2.4551204   -0.8335068    4.1489647
C    -1.7508118   -0.7469132    5.3809701
C    -0.7469132   -1.7508118    5.3809701
C    -0.8335068   -2.4551204    4.1489647
C    -1.8912900   -1.8912900    3.3902223
H     0.1911832   -3.2786694   -3.8308009
H     0.0379337   -1.9503692   -6.1872064
H     2.1871914   -2.1871914   -2.3824951
H     1.9503692   -0.0379337   -6.1872064
H     3.2786694   -0.1911832   -3.8308009
H    -0.0379337    1.9503692   -6.1872064
H    -0.1911832    3.2786694   -3.8308009
H    -2.1871914    2.1871914   -2.3824951
H    -3.2786694    0.1911832   -3.8308009
H    -1.9503692    0.0379337   -6.1872064
H    -0.1911832   -3.2786694    3.8308009
H    -2.1871914   -2.1871914    2.3824951
H    -3.2786694   -0.1911832    3.8308009
H    -1.9503692   -0.0379337    6.1872064
H    -0.0379337   -1.9503692    6.1872064
H     0.0379337    1.9503692    6.1872064
H     0.1911832    3.2786694    3.8308009
H     2.1871914    2.1871914    2.3824951
H     1.9503692    0.0379337    6.1872064
H     3.2786694    0.1911832    3.8308009
